Version 4.1
SHEET 1 1600 680
WIRE -64 112 -256 112
WIRE 112 112 -64 112
WIRE 352 112 208 112
WIRE 464 112 352 112
WIRE 640 112 544 112
WIRE 768 112 640 112
WIRE 352 144 352 112
WIRE -256 160 -256 112
WIRE -64 176 -64 112
WIRE 352 176 352 144
WIRE 640 176 640 112
WIRE 768 176 768 112
WIRE 192 192 192 160
WIRE -256 288 -256 240
WIRE -64 288 -64 240
WIRE 192 288 192 272
WIRE 352 288 352 240
WIRE 640 288 640 240
WIRE 768 288 768 256
FLAG 768 288 0
FLAG 640 288 0
FLAG 352 288 0
FLAG -64 288 0
FLAG 192 288 0
FLAG -256 288 0
FLAG 304 304 0
SYMBOL ind 448 128 R270
WINDOW 0 32 56 VTop 2
WINDOW 3 5 56 VBottom 2
SYMATTR InstName L1
SYMATTR Value 180µ
SYMBOL cap 624 176 R0
SYMATTR InstName C1
SYMATTR Value 100µ
SYMBOL res 752 160 R0
SYMATTR InstName R1
SYMATTR Value 10
SYMBOL cap -80 176 R0
SYMATTR InstName C2
SYMATTR Value 100µ
SYMBOL voltage 192 176 R0
WINDOW 123 0 0 Left 0
WINDOW 39 0 0 Left 0
WINDOW 3 -229 153 Left 2
SYMATTR InstName V1
SYMATTR Value PULSE(24 0 0 1p 1p 4u 7.69u)
SYMBOL voltage -256 144 R0
WINDOW 123 0 0 Left 0
WINDOW 39 0 0 Left 0
SYMATTR InstName V2
SYMATTR Value 24
SYMBOL nmos 112 160 R270
SYMATTR InstName M1
SYMATTR Value IRFZ46N
SYMBOL nmos 304 144 R0
SYMATTR InstName M2
SYMATTR Value IRFZ46N
SYMBOL voltage 304 208 R0
WINDOW 123 0 0 Left 0
WINDOW 39 0 0 Left 0
WINDOW 3 35 117 Left 2
SYMATTR InstName V3
SYMATTR Value PULSE(0 24 0 1p 1p 4u 7.69u)
TEXT -288 312 Left 2 !.tran 0 20m 0 100n
TEXT 688 448 Left 2 !.inc irf4905.txt
