Version 4.1
SHEET 1 1016 680
WIRE 816 -48 720 -48
WIRE 528 0 464 0
WIRE 640 0 592 0
WIRE 192 96 32 96
WIRE 320 112 256 112
WIRE 352 112 320 112
WIRE 464 112 464 0
WIRE 464 112 432 112
WIRE 528 112 464 112
WIRE 192 128 144 128
WIRE 640 128 640 0
WIRE 640 128 592 128
WIRE 800 128 640 128
WIRE 528 144 496 144
WIRE 960 144 864 144
WIRE 800 160 736 160
WIRE 960 176 960 144
WIRE 736 208 736 160
WIRE 144 224 144 128
WIRE 192 224 144 224
WIRE 320 224 320 112
WIRE 320 224 272 224
WIRE 496 224 496 144
WIRE 144 272 144 224
WIRE 960 288 960 256
WIRE 496 336 496 304
WIRE 144 384 144 352
WIRE 640 384 640 128
WIRE 640 384 144 384
FLAG 816 -48 0
FLAG 224 80 Vin
FLAG 560 96 Vin
FLAG 496 336 0
FLAG 560 160 -Vin
FLAG 720 -128 Vin
FLAG 720 32 -Vin
FLAG 832 176 Vin
FLAG 832 112 -Vin
FLAG 736 288 0
FLAG 960 288 0
FLAG 32 176 0
FLAG 224 144 -Vin
SYMBOL voltage 720 -144 R0
WINDOW 123 0 0 Left 0
WINDOW 39 0 0 Left 0
SYMATTR InstName V1
SYMATTR Value 12
SYMBOL res 128 256 R0
SYMATTR InstName R2
SYMATTR Value 1k
SYMBOL res 288 208 R90
WINDOW 0 0 56 VBottom 2
WINDOW 3 32 56 VTop 2
SYMATTR InstName R1
SYMATTR Value 2k
SYMBOL res 448 96 R90
WINDOW 0 0 56 VBottom 2
WINDOW 3 32 56 VTop 2
SYMATTR InstName R3
SYMATTR Value 3.8k
SYMBOL voltage 496 208 R0
WINDOW 123 0 0 Left 0
WINDOW 39 0 0 Left 0
SYMATTR InstName V2
SYMATTR Value 12
SYMBOL cap 592 -16 R90
WINDOW 0 0 32 VBottom 2
WINDOW 3 32 32 VTop 2
SYMATTR InstName C1
SYMATTR Value 1n
SYMBOL voltage 720 -64 R0
WINDOW 123 0 0 Left 0
WINDOW 39 0 0 Left 0
SYMATTR InstName V3
SYMATTR Value 12
SYMBOL OpAmps\\AD822 560 64 R0
SYMATTR InstName U2
SYMBOL Comparators\\LT1721 832 208 M180
SYMATTR InstName U3
SYMBOL voltage 736 192 R0
WINDOW 123 0 0 Left 0
WINDOW 39 0 0 Left 0
SYMATTR InstName V4
SYMATTR Value 5
SYMBOL res 944 160 R0
SYMATTR InstName R4
SYMATTR Value 5k
SYMBOL voltage 32 80 R0
WINDOW 123 0 0 Left 0
WINDOW 39 0 0 Left 0
SYMATTR InstName V5
SYMATTR Value 0
TEXT 192 536 Left 2 !.include lm741.lib
TEXT 120 560 Left 2 !.tran 0 0.00015 0 1u
TEXT 192 512 Left 2 !.include LM393.5_1
