Version 4.1
SHEET 1 2208 740
WIRE 320 -32 224 -32
WIRE 320 0 320 -32
WIRE 528 0 464 0
WIRE 640 0 592 0
WIRE 224 80 224 -32
WIRE 192 96 32 96
WIRE 320 112 320 80
WIRE 320 112 256 112
WIRE 352 112 320 112
WIRE 464 112 464 0
WIRE 464 112 432 112
WIRE 528 112 464 112
WIRE 192 128 144 128
WIRE 640 128 640 0
WIRE 640 128 592 128
WIRE 528 144 496 144
WIRE 144 224 144 128
WIRE 192 224 144 224
WIRE 320 224 320 112
WIRE 320 224 272 224
WIRE 144 272 144 224
WIRE 144 384 144 352
WIRE 640 384 640 128
WIRE 640 384 144 384
WIRE 32 416 32 96
WIRE 32 416 -32 416
WIRE 256 416 32 416
WIRE 496 416 496 144
WIRE 496 416 256 416
WIRE -32 544 -32 416
WIRE 0 544 -32 544
WIRE 256 560 256 416
WIRE 256 560 64 560
WIRE 0 576 -32 576
WIRE -160 608 -160 576
WIRE -32 608 -32 576
WIRE -32 608 -160 608
WIRE -160 640 -160 608
FLAG 224 144 0
FLAG 1104 -96 0
FLAG 560 160 0
FLAG 1104 -176 Vcc
FLAG 224 -32 Vcc
FLAG 560 96 Vcc
FLAG 32 592 0
FLAG 32 528 Vcc
FLAG -160 496 Vcc
FLAG -160 720 0
SYMBOL res 128 256 R0
SYMATTR InstName R2
SYMATTR Value 2.5k
SYMBOL res 288 208 R90
WINDOW 0 0 56 VBottom 2
WINDOW 3 32 56 VTop 2
SYMATTR InstName R1
SYMATTR Value 5k
SYMBOL res 448 96 R90
WINDOW 0 0 56 VBottom 2
WINDOW 3 32 56 VTop 2
SYMATTR InstName R3
SYMATTR Value 3.8k
SYMBOL cap 592 -16 R90
WINDOW 0 0 32 VBottom 2
WINDOW 3 32 32 VTop 2
SYMATTR InstName C1
SYMATTR Value 1n
SYMBOL voltage 1104 -192 R0
WINDOW 123 0 0 Left 0
WINDOW 39 0 0 Left 0
SYMATTR InstName V4
SYMATTR Value 12
SYMBOL OpAmps\\opamp2 560 64 R0
SYMATTR InstName U2
SYMATTR Value TL082
SYMBOL res 304 -16 R0
SYMATTR InstName R4
SYMATTR Value 1k
SYMBOL OpAmps\\opamp2 224 48 R0
SYMATTR InstName U1
SYMATTR Value LM393A
SYMBOL OpAmps\\opamp2 32 496 R0
SYMATTR InstName U3
SYMATTR Value TL082
SYMBOL res -176 480 R0
SYMATTR InstName R5
SYMATTR Value 100k
SYMBOL res -176 624 R0
SYMATTR InstName R6
SYMATTR Value 100k
TEXT 1168 544 Left 2 !.include lm741.lib
TEXT 1096 568 Left 2 !.tran 0 0.0015 0 1u
TEXT 1168 520 Left 2 !.include LM393A.lib
TEXT 1176 456 Left 2 !.include LM324.lib
TEXT 1304 344 Left 2 !.include TL082.lib
TEXT 1184 416 Left 2 !.include lmx24_lm2902.lib
