Version 4.1
SHEET 1 3652 4180
WIRE -2576 -384 -3088 -384
WIRE -2240 -384 -2576 -384
WIRE -1568 -384 -2240 -384
WIRE -528 -384 -1040 -384
WIRE -192 -384 -528 -384
WIRE 480 -384 -192 -384
WIRE -2576 -336 -2576 -384
WIRE -2240 -336 -2240 -384
WIRE -528 -336 -528 -384
WIRE -192 -336 -192 -384
WIRE -2400 -288 -2512 -288
WIRE -2304 -288 -2400 -288
WIRE -352 -288 -464 -288
WIRE -256 -288 -352 -288
WIRE -1568 -272 -1568 -384
WIRE 480 -272 480 -384
WIRE -1632 -224 -1696 -224
WIRE 416 -224 352 -224
WIRE -2576 -208 -2576 -240
WIRE -2400 -208 -2400 -288
WIRE -2400 -208 -2576 -208
WIRE -528 -208 -528 -240
WIRE -352 -208 -352 -288
WIRE -352 -208 -528 -208
WIRE -3088 -176 -3088 -384
WIRE -2240 -176 -2240 -240
WIRE -1792 -176 -2240 -176
WIRE -1760 -176 -1792 -176
WIRE -1040 -176 -1040 -384
WIRE -192 -176 -192 -240
WIRE -48 -176 -192 -176
WIRE 256 -176 -48 -176
WIRE 288 -176 256 -176
WIRE -1568 -128 -1568 -176
WIRE -1568 -128 -1696 -128
WIRE 480 -128 480 -176
WIRE 480 -128 352 -128
WIRE -48 -112 -48 -176
WIRE -1792 -48 -1792 -176
WIRE 256 -48 256 -176
WIRE -48 -32 -48 -48
WIRE -1696 0 -1728 0
WIRE -1648 0 -1696 0
WIRE -1568 0 -1568 -128
WIRE 352 0 320 0
WIRE 400 0 352 0
WIRE 480 0 480 -128
WIRE -1568 16 -1568 0
WIRE 480 16 480 0
WIRE -48 80 -48 48
WIRE -1792 128 -1792 48
WIRE -1568 128 -1568 96
WIRE -1568 128 -1792 128
WIRE 256 128 256 48
WIRE 480 128 480 96
WIRE 480 128 256 128
WIRE -3088 224 -3088 -96
WIRE -1040 224 -1040 -96
WIRE -2576 272 -2576 -208
WIRE -2240 272 -2240 -176
WIRE -528 272 -528 -208
WIRE -192 272 -192 -176
WIRE -2640 320 -2736 320
WIRE -2032 320 -2176 320
WIRE -1904 320 -2032 320
WIRE -1728 320 -1824 320
WIRE -1680 320 -1728 320
WIRE -1568 320 -1568 128
WIRE -1568 320 -1600 320
WIRE -640 320 -688 320
WIRE -592 320 -640 320
WIRE 16 320 -128 320
WIRE 144 320 16 320
WIRE 320 320 224 320
WIRE 368 320 320 320
WIRE 480 320 480 128
WIRE 480 320 448 320
WIRE -2736 352 -2736 320
WIRE -1568 352 -1568 320
WIRE -1408 352 -1568 352
WIRE -688 352 -688 320
WIRE 480 352 480 320
WIRE 640 352 480 352
WIRE -1728 368 -1728 320
WIRE 320 368 320 320
WIRE -2032 384 -2032 320
WIRE 16 384 16 320
WIRE -1568 400 -1568 352
WIRE 480 400 480 352
WIRE -1408 416 -1408 352
WIRE 640 416 640 352
WIRE -1728 464 -1728 432
WIRE 320 464 320 432
WIRE -2576 496 -2576 368
WIRE -2400 496 -2576 496
WIRE -2240 496 -2240 368
WIRE -2240 496 -2400 496
WIRE -528 496 -528 368
WIRE -352 496 -528 496
WIRE -192 496 -192 368
WIRE -192 496 -352 496
WIRE -2032 576 -2032 464
WIRE -1728 576 -1728 544
WIRE -1568 576 -1568 480
WIRE -1408 576 -1408 480
WIRE 16 576 16 464
WIRE 320 576 320 544
WIRE 480 576 480 480
WIRE 640 576 640 480
WIRE -2688 608 -2768 608
WIRE -640 608 -720 608
WIRE -2688 640 -2688 608
WIRE -640 640 -640 608
WIRE -2688 736 -2688 720
WIRE -2592 736 -2688 736
WIRE -640 736 -640 720
WIRE -544 736 -640 736
WIRE -2688 768 -2688 736
WIRE -2400 768 -2400 496
WIRE -640 768 -640 736
WIRE -352 768 -352 496
WIRE -2592 816 -2592 736
WIRE -2592 816 -2624 816
WIRE -2464 816 -2592 816
WIRE -544 816 -544 736
WIRE -544 816 -576 816
WIRE -416 816 -544 816
WIRE -2688 976 -2688 864
WIRE -2400 976 -2400 864
WIRE -640 976 -640 864
WIRE -352 976 -352 864
WIRE -2592 1216 -3104 1216
WIRE -2256 1216 -2592 1216
WIRE -1584 1216 -2256 1216
WIRE -528 1216 -1040 1216
WIRE -192 1216 -528 1216
WIRE 480 1216 -192 1216
WIRE -2592 1264 -2592 1216
WIRE -2256 1264 -2256 1216
WIRE -528 1264 -528 1216
WIRE -192 1264 -192 1216
WIRE -2416 1312 -2528 1312
WIRE -2320 1312 -2416 1312
WIRE -352 1312 -464 1312
WIRE -256 1312 -352 1312
WIRE -1584 1328 -1584 1216
WIRE 480 1328 480 1216
WIRE -1648 1376 -1712 1376
WIRE 416 1376 352 1376
WIRE -2592 1392 -2592 1360
WIRE -2416 1392 -2416 1312
WIRE -2416 1392 -2592 1392
WIRE -528 1392 -528 1360
WIRE -352 1392 -352 1312
WIRE -352 1392 -528 1392
WIRE -3104 1424 -3104 1216
WIRE -2256 1424 -2256 1360
WIRE -1808 1424 -2256 1424
WIRE -1776 1424 -1808 1424
WIRE -1040 1424 -1040 1216
WIRE -192 1424 -192 1360
WIRE -48 1424 -192 1424
WIRE 256 1424 -48 1424
WIRE 288 1424 256 1424
WIRE -1584 1472 -1584 1424
WIRE -1584 1472 -1712 1472
WIRE 480 1472 480 1424
WIRE 480 1472 352 1472
WIRE -48 1488 -48 1424
WIRE -1808 1552 -1808 1424
WIRE 256 1552 256 1424
WIRE -48 1568 -48 1552
WIRE -1712 1600 -1744 1600
WIRE -1664 1600 -1712 1600
WIRE -1584 1600 -1584 1472
WIRE -1424 1600 -1584 1600
WIRE 352 1600 320 1600
WIRE 400 1600 352 1600
WIRE 480 1600 480 1472
WIRE 640 1600 480 1600
WIRE -1584 1632 -1584 1600
WIRE -1424 1632 -1424 1600
WIRE 480 1632 480 1600
WIRE 640 1632 640 1600
WIRE -1424 1648 -1424 1632
WIRE 640 1648 640 1632
WIRE -48 1680 -48 1648
WIRE -1584 1760 -1584 1712
WIRE -1360 1760 -1584 1760
WIRE 480 1760 480 1712
WIRE 704 1760 480 1760
WIRE -1584 1792 -1584 1760
WIRE -1360 1792 -1360 1760
WIRE 480 1792 480 1760
WIRE 704 1792 704 1760
WIRE -3104 1824 -3104 1504
WIRE -1040 1824 -1040 1504
WIRE -2592 1872 -2592 1392
WIRE -2256 1872 -2256 1424
WIRE -528 1872 -528 1392
WIRE -192 1872 -192 1424
WIRE -1808 1888 -1808 1648
WIRE -1584 1888 -1584 1872
WIRE -1584 1888 -1808 1888
WIRE 256 1888 256 1648
WIRE 480 1888 480 1872
WIRE 480 1888 256 1888
WIRE -1360 1904 -1360 1872
WIRE 704 1904 704 1872
WIRE -2656 1920 -2752 1920
WIRE -2048 1920 -2192 1920
WIRE -1920 1920 -2048 1920
WIRE -1584 1920 -1584 1888
WIRE -1584 1920 -1840 1920
WIRE -592 1920 -688 1920
WIRE 16 1920 -128 1920
WIRE 144 1920 16 1920
WIRE 480 1920 480 1888
WIRE 480 1920 224 1920
WIRE -2752 1952 -2752 1920
WIRE -1584 1952 -1584 1920
WIRE -1424 1952 -1584 1952
WIRE -688 1952 -688 1920
WIRE 480 1952 480 1920
WIRE 640 1952 480 1952
WIRE -2048 1984 -2048 1920
WIRE 16 1984 16 1920
WIRE -1584 2000 -1584 1952
WIRE 480 2000 480 1952
WIRE -1424 2016 -1424 1952
WIRE 640 2016 640 1952
WIRE -2592 2096 -2592 1968
WIRE -2416 2096 -2592 2096
WIRE -2256 2096 -2256 1968
WIRE -2256 2096 -2416 2096
WIRE -528 2096 -528 1968
WIRE -352 2096 -528 2096
WIRE -192 2096 -192 1968
WIRE -192 2096 -352 2096
WIRE -2048 2176 -2048 2064
WIRE -1584 2176 -1584 2080
WIRE -1424 2176 -1424 2080
WIRE 16 2176 16 2064
WIRE 480 2176 480 2080
WIRE 640 2176 640 2080
WIRE -2704 2208 -2784 2208
WIRE -640 2208 -720 2208
WIRE -2704 2240 -2704 2208
WIRE -640 2240 -640 2208
WIRE -2704 2336 -2704 2320
WIRE -2608 2336 -2704 2336
WIRE -640 2336 -640 2320
WIRE -544 2336 -640 2336
WIRE -2704 2368 -2704 2336
WIRE -2416 2368 -2416 2096
WIRE -640 2368 -640 2336
WIRE -352 2368 -352 2096
WIRE -2608 2416 -2608 2336
WIRE -2608 2416 -2640 2416
WIRE -2480 2416 -2608 2416
WIRE -544 2416 -544 2336
WIRE -544 2416 -576 2416
WIRE -416 2416 -544 2416
WIRE -2704 2576 -2704 2464
WIRE -2416 2576 -2416 2464
WIRE -640 2576 -640 2464
WIRE -352 2576 -352 2464
WIRE -2592 2800 -3104 2800
WIRE -2256 2800 -2592 2800
WIRE -1584 2800 -2256 2800
WIRE -2592 2848 -2592 2800
WIRE -2256 2848 -2256 2800
WIRE -2416 2896 -2528 2896
WIRE -2320 2896 -2416 2896
WIRE -1584 2912 -1584 2800
WIRE -1648 2960 -1712 2960
WIRE -2592 2976 -2592 2944
WIRE -2416 2976 -2416 2896
WIRE -2416 2976 -2592 2976
WIRE -3104 3008 -3104 2800
WIRE -2256 3008 -2256 2944
WIRE -2080 3008 -2256 3008
WIRE -1808 3008 -2080 3008
WIRE -1776 3008 -1808 3008
WIRE -2080 3040 -2080 3008
WIRE -1584 3056 -1584 3008
WIRE -1584 3056 -1712 3056
WIRE -2080 3120 -2080 3104
WIRE -1808 3136 -1808 3008
WIRE -1712 3184 -1744 3184
WIRE -1664 3184 -1712 3184
WIRE -1584 3184 -1584 3056
WIRE -2080 3232 -2080 3200
WIRE -1584 3376 -1584 3184
WIRE -3104 3408 -3104 3088
WIRE -2592 3456 -2592 2976
WIRE -2256 3456 -2256 3008
WIRE -1808 3472 -1808 3232
WIRE -1584 3472 -1584 3456
WIRE -1584 3472 -1808 3472
WIRE -2656 3504 -2752 3504
WIRE -2048 3504 -2192 3504
WIRE -1920 3504 -2048 3504
WIRE -1584 3504 -1584 3472
WIRE -1584 3504 -1840 3504
WIRE -2752 3536 -2752 3504
WIRE -1584 3536 -1584 3504
WIRE -1424 3536 -1584 3536
WIRE -2048 3568 -2048 3504
WIRE -1584 3584 -1584 3536
WIRE -1424 3600 -1424 3536
WIRE -2592 3680 -2592 3552
WIRE -2416 3680 -2592 3680
WIRE -2256 3680 -2256 3552
WIRE -2256 3680 -2416 3680
WIRE -2048 3760 -2048 3648
WIRE -1584 3760 -1584 3664
WIRE -1424 3760 -1424 3664
WIRE -2704 3792 -2784 3792
WIRE -2704 3824 -2704 3792
WIRE -2704 3920 -2704 3904
WIRE -2608 3920 -2704 3920
WIRE -2704 3952 -2704 3920
WIRE -2416 3952 -2416 3680
WIRE -2608 4000 -2608 3920
WIRE -2608 4000 -2640 4000
WIRE -2480 4000 -2608 4000
WIRE -2704 4160 -2704 4048
WIRE -2416 4160 -2416 4048
FLAG -688 432 0
FLAG 480 576 0
FLAG -1040 224 0
FLAG 16 576 0
FLAG 352 80 0
FLAG 320 0 B
FLAG -640 320 Vref
FLAG -352 976 0
FLAG -1040 -384 Vin
FLAG -640 976 0
FLAG -720 608 Vref
FLAG 640 576 0
FLAG 320 576 0
FLAG -48 80 0
FLAG -688 2032 0
FLAG 480 2176 0
FLAG -1040 1824 0
FLAG 16 2176 0
FLAG 352 1680 0
FLAG -352 2576 0
FLAG -640 2576 0
FLAG -720 2208 Vref
FLAG 640 2176 0
FLAG 704 1904 0
FLAG -48 1680 0
FLAG 640 1696 0
FLAG -2752 2032 0
FLAG -1584 2176 0
FLAG -3104 1824 0
FLAG -2048 2176 0
FLAG -1712 1680 0
FLAG -2416 2576 0
FLAG -2704 2576 0
FLAG -2784 2208 Vref
FLAG -1424 2176 0
FLAG -1360 1904 0
FLAG -1424 1696 0
FLAG -2736 432 0
FLAG -1568 576 0
FLAG -3088 224 0
FLAG -2032 576 0
FLAG -1696 80 0
FLAG -2400 976 0
FLAG -2688 976 0
FLAG -2768 608 Vref
FLAG -1408 576 0
FLAG -1728 576 0
FLAG -1568 320 sin_comp_tension
FLAG 480 320 comp_tension
FLAG -1584 1920 sin_comp_corriente
FLAG 480 1920 comp_corriente
FLAG -2752 3616 0
FLAG -1584 3760 0
FLAG -3104 3408 0
FLAG -2048 3760 0
FLAG -1712 3264 0
FLAG -2416 4160 0
FLAG -2704 4160 0
FLAG -2784 3792 Vref
FLAG -1424 3760 0
FLAG -1584 3504 frec_vin
FLAG -2080 3232 0
SYMBOL npn -592 272 R0
SYMATTR InstName Q1
SYMATTR Value BC547C
SYMBOL npn -128 272 M0
SYMATTR InstName Q2
SYMATTR Value BC547C
SYMBOL npn 288 -224 R0
SYMATTR InstName Q3
SYMATTR Value BC547C
SYMBOL pnp -464 -240 R180
SYMATTR InstName Q4
SYMATTR Value BC557C
SYMBOL pnp -256 -240 M180
SYMATTR InstName Q5
SYMATTR Value BC557C
SYMBOL voltage -688 336 R0
WINDOW 123 24 124 Left 2
WINDOW 39 0 0 Left 0
SYMATTR InstName V1
SYMATTR Value 2.5
SYMBOL voltage -1040 -192 R0
WINDOW 123 0 0 Left 0
WINDOW 39 0 0 Left 0
SYMATTR InstName VIN1
SYMATTR Value 9.5
SYMBOL pnp 416 -176 M180
SYMATTR InstName Q6
SYMATTR Value Qmje2955t
SYMBOL res 464 384 R0
SYMATTR InstName RL1
SYMATTR Value {R_L}
SYMBOL res 240 304 R90
WINDOW 0 0 56 VBottom 2
WINDOW 3 32 56 VTop 2
SYMATTR InstName R1
SYMATTR Value 2k
SYMBOL res 32 480 R180
WINDOW 0 36 76 Left 2
WINDOW 3 36 40 Left 2
SYMATTR InstName R2
SYMATTR Value 2k
SYMBOL npn 320 -48 M0
SYMATTR InstName Q7
SYMATTR Value BC547C
SYMBOL res 464 0 R0
SYMATTR InstName Rs1
SYMATTR Value 2.4
SYMBOL res 496 -16 R90
WINDOW 0 0 56 VBottom 2
WINDOW 3 32 56 VTop 2
SYMATTR InstName R3
SYMATTR Value 1k
SYMBOL res 368 96 R180
WINDOW 0 36 76 Left 2
WINDOW 3 36 40 Left 2
SYMATTR InstName R4
SYMATTR Value 1880
SYMBOL npn -416 768 R0
SYMATTR InstName Q8
SYMATTR Value BC547C
SYMBOL npn -576 768 M0
SYMATTR InstName Q9
SYMATTR Value BC547C
SYMBOL res -656 624 R0
SYMATTR InstName R5
SYMATTR Value 1.8k
SYMBOL cap 624 416 R0
SYMATTR InstName C1
SYMATTR Value {C_L}
SYMBOL ind 464 304 R90
WINDOW 0 5 56 VBottom 2
WINDOW 3 32 56 VTop 2
SYMATTR InstName L1
SYMATTR Value 1G
SYMBOL cap 304 368 R0
SYMATTR InstName C2
SYMATTR Value 1
SYMBOL voltage 320 448 R0
WINDOW 123 24 124 Left 2
WINDOW 39 0 0 Left 0
SYMATTR Value2 AC 1
SYMATTR InstName V2
SYMATTR Value ""
SYMBOL cap -64 -112 R0
SYMATTR InstName C3
SYMATTR Value {C_c}
SYMBOL res -64 -48 R0
SYMATTR InstName erre
SYMATTR Value 100
SYMBOL npn -592 1872 R0
SYMATTR InstName Q10
SYMATTR Value BC547C
SYMBOL npn -128 1872 M0
SYMATTR InstName Q11
SYMATTR Value BC547C
SYMBOL npn 288 1376 R0
SYMATTR InstName Q12
SYMATTR Value BC547C
SYMBOL pnp -464 1360 R180
SYMATTR InstName Q13
SYMATTR Value BC557C
SYMBOL pnp -256 1360 M180
SYMATTR InstName Q14
SYMATTR Value BC557C
SYMBOL voltage -688 1936 R0
WINDOW 123 24 124 Left 2
WINDOW 39 0 0 Left 0
SYMATTR InstName V3
SYMATTR Value 2.5
SYMBOL voltage -1040 1408 R0
WINDOW 123 0 0 Left 0
WINDOW 39 0 0 Left 0
SYMATTR InstName VIN2
SYMATTR Value 9.5
SYMBOL pnp 416 1424 M180
SYMATTR InstName Q15
SYMATTR Value Qmje2955t
SYMBOL res 464 1984 R0
SYMATTR InstName RL2
SYMATTR Value {R_L}
SYMBOL res 240 1904 R90
WINDOW 0 0 56 VBottom 2
WINDOW 3 32 56 VTop 2
SYMATTR InstName R6
SYMATTR Value 2k
SYMBOL res 32 2080 R180
WINDOW 0 36 76 Left 2
WINDOW 3 36 40 Left 2
SYMATTR InstName R7
SYMATTR Value 2k
SYMBOL npn 320 1552 M0
SYMATTR InstName Q16
SYMATTR Value BC547C
SYMBOL res 464 1776 R0
SYMATTR InstName Rs2
SYMATTR Value 2.4
SYMBOL res 496 1584 R90
WINDOW 0 0 56 VBottom 2
WINDOW 3 32 56 VTop 2
SYMATTR InstName R8
SYMATTR Value 1k
SYMBOL res 368 1696 R180
WINDOW 0 36 76 Left 2
WINDOW 3 36 40 Left 2
SYMATTR InstName R9
SYMATTR Value 1880
SYMBOL npn -416 2368 R0
SYMATTR InstName Q17
SYMATTR Value BC547C
SYMBOL npn -576 2368 M0
SYMATTR InstName Q18
SYMATTR Value BC547C
SYMBOL res -656 2224 R0
SYMATTR InstName R10
SYMATTR Value 1.8k
SYMBOL cap 624 2016 R0
SYMATTR InstName C4
SYMATTR Value {C_L}
SYMBOL ind 464 1616 R0
SYMATTR InstName L2
SYMATTR Value 1G
SYMBOL cap -64 1488 R0
SYMATTR InstName C6
SYMATTR Value {C_c}
SYMBOL res -64 1552 R0
SYMATTR InstName erre1
SYMATTR Value 100
SYMBOL current 704 1872 R180
WINDOW 0 24 80 Left 2
WINDOW 3 24 0 Left 2
WINDOW 123 24 -28 Left 2
WINDOW 39 0 0 Left 0
SYMATTR InstName I1
SYMATTR Value ""
SYMATTR Value2 AC 1
SYMBOL cap 624 1632 R0
SYMATTR InstName C5
SYMATTR Value 1G
SYMBOL npn -2656 1872 R0
SYMATTR InstName Q19
SYMATTR Value BC547C
SYMBOL npn -2192 1872 M0
SYMATTR InstName Q20
SYMATTR Value BC547C
SYMBOL npn -1776 1376 R0
SYMATTR InstName Q21
SYMATTR Value BC547C
SYMBOL pnp -2528 1360 R180
SYMATTR InstName Q22
SYMATTR Value BC557C
SYMBOL pnp -2320 1360 M180
SYMATTR InstName Q23
SYMATTR Value BC557C
SYMBOL voltage -2752 1936 R0
WINDOW 123 24 124 Left 2
WINDOW 39 0 0 Left 0
SYMATTR InstName V4
SYMATTR Value 2.5
SYMBOL voltage -3104 1408 R0
WINDOW 123 0 0 Left 0
WINDOW 39 0 0 Left 0
SYMATTR InstName VIN3
SYMATTR Value 9.5
SYMBOL pnp -1648 1424 M180
SYMATTR InstName Q24
SYMATTR Value Qmje2955t
SYMBOL res -1600 1984 R0
SYMATTR InstName RL3
SYMATTR Value {R_L}
SYMBOL res -1824 1904 R90
WINDOW 0 0 56 VBottom 2
WINDOW 3 32 56 VTop 2
SYMATTR InstName R11
SYMATTR Value 2k
SYMBOL res -2032 2080 R180
WINDOW 0 36 76 Left 2
WINDOW 3 36 40 Left 2
SYMATTR InstName R12
SYMATTR Value 2k
SYMBOL npn -1744 1552 M0
SYMATTR InstName Q25
SYMATTR Value BC547C
SYMBOL res -1600 1776 R0
SYMATTR InstName Rs3
SYMATTR Value 2.4
SYMBOL res -1568 1584 R90
WINDOW 0 0 56 VBottom 2
WINDOW 3 32 56 VTop 2
SYMATTR InstName R13
SYMATTR Value 1k
SYMBOL res -1696 1696 R180
WINDOW 0 36 76 Left 2
WINDOW 3 36 40 Left 2
SYMATTR InstName R14
SYMATTR Value 1880
SYMBOL npn -2480 2368 R0
SYMATTR InstName Q26
SYMATTR Value BC547C
SYMBOL npn -2640 2368 M0
SYMATTR InstName Q27
SYMATTR Value BC547C
SYMBOL res -2720 2224 R0
SYMATTR InstName R15
SYMATTR Value 1.8k
SYMBOL cap -1440 2016 R0
SYMATTR InstName C7
SYMATTR Value {C_L}
SYMBOL ind -1600 1616 R0
SYMATTR InstName L3
SYMATTR Value 1G
SYMBOL current -1360 1872 R180
WINDOW 0 24 80 Left 2
WINDOW 3 24 0 Left 2
WINDOW 123 24 -28 Left 2
WINDOW 39 0 0 Left 0
SYMATTR InstName I2
SYMATTR Value ""
SYMATTR Value2 AC 1
SYMBOL cap -1440 1632 R0
SYMATTR InstName C9
SYMATTR Value 1G
SYMBOL npn -2640 272 R0
SYMATTR InstName Q28
SYMATTR Value BC547C
SYMBOL npn -2176 272 M0
SYMATTR InstName Q29
SYMATTR Value BC547C
SYMBOL npn -1760 -224 R0
SYMATTR InstName Q30
SYMATTR Value BC547C
SYMBOL pnp -2512 -240 R180
SYMATTR InstName Q31
SYMATTR Value BC557C
SYMBOL pnp -2304 -240 M180
SYMATTR InstName Q32
SYMATTR Value BC557C
SYMBOL voltage -2736 336 R0
WINDOW 123 24 124 Left 2
WINDOW 39 0 0 Left 0
SYMATTR InstName V5
SYMATTR Value 2.5
SYMBOL voltage -3088 -192 R0
WINDOW 123 0 0 Left 0
WINDOW 39 0 0 Left 0
SYMATTR InstName VIN4
SYMATTR Value 9.5
SYMBOL pnp -1632 -176 M180
SYMATTR InstName Q33
SYMATTR Value Qmje2955t
SYMBOL res -1584 384 R0
SYMATTR InstName RL4
SYMATTR Value {R_L}
SYMBOL res -1808 304 R90
WINDOW 0 0 56 VBottom 2
WINDOW 3 32 56 VTop 2
SYMATTR InstName R16
SYMATTR Value 2k
SYMBOL res -2016 480 R180
WINDOW 0 36 76 Left 2
WINDOW 3 36 40 Left 2
SYMATTR InstName R17
SYMATTR Value 2k
SYMBOL npn -1728 -48 M0
SYMATTR InstName Q34
SYMATTR Value BC547C
SYMBOL res -1584 0 R0
SYMATTR InstName Rs4
SYMATTR Value 2.4
SYMBOL res -1552 -16 R90
WINDOW 0 0 56 VBottom 2
WINDOW 3 32 56 VTop 2
SYMATTR InstName R18
SYMATTR Value 1k
SYMBOL res -1680 96 R180
WINDOW 0 36 76 Left 2
WINDOW 3 36 40 Left 2
SYMATTR InstName R19
SYMATTR Value 1880
SYMBOL npn -2464 768 R0
SYMATTR InstName Q35
SYMATTR Value BC547C
SYMBOL npn -2624 768 M0
SYMATTR InstName Q36
SYMATTR Value BC547C
SYMBOL res -2704 624 R0
SYMATTR InstName R20
SYMATTR Value 1.8k
SYMBOL cap -1424 416 R0
SYMATTR InstName C8
SYMATTR Value {C_L}
SYMBOL ind -1584 304 R90
WINDOW 0 5 56 VBottom 2
WINDOW 3 32 56 VTop 2
SYMATTR InstName L4
SYMATTR Value 1G
SYMBOL cap -1744 368 R0
SYMATTR InstName C10
SYMATTR Value 1
SYMBOL voltage -1728 448 R0
WINDOW 123 24 124 Left 2
WINDOW 39 0 0 Left 0
SYMATTR Value2 AC 1
SYMATTR InstName V6
SYMATTR Value ""
SYMBOL npn -2656 3456 R0
SYMATTR InstName Q37
SYMATTR Value BC547C
SYMBOL npn -2192 3456 M0
SYMATTR InstName Q38
SYMATTR Value BC547C
SYMBOL npn -1776 2960 R0
SYMATTR InstName Q39
SYMATTR Value BC547C
SYMBOL pnp -2528 2944 R180
SYMATTR InstName Q40
SYMATTR Value BC557C
SYMBOL pnp -2320 2944 M180
SYMATTR InstName Q41
SYMATTR Value BC557C
SYMBOL voltage -2752 3520 R0
WINDOW 123 24 124 Left 2
WINDOW 39 0 0 Left 0
SYMATTR InstName V7
SYMATTR Value 2.5
SYMBOL voltage -3104 2992 R0
WINDOW 123 24 124 Left 2
WINDOW 39 0 0 Left 0
SYMATTR Value2 AC 1
SYMATTR InstName VIN5
SYMATTR Value 9.5
SYMBOL pnp -1648 3008 M180
SYMATTR InstName Q42
SYMATTR Value Qmje2955t
SYMBOL res -1600 3568 R0
SYMATTR InstName RL5
SYMATTR Value {R_L}
SYMBOL res -1824 3488 R90
WINDOW 0 0 56 VBottom 2
WINDOW 3 32 56 VTop 2
SYMATTR InstName R21
SYMATTR Value 2k
SYMBOL res -2032 3664 R180
WINDOW 0 36 76 Left 2
WINDOW 3 36 40 Left 2
SYMATTR InstName R22
SYMATTR Value 2k
SYMBOL npn -1744 3136 M0
SYMATTR InstName Q43
SYMATTR Value BC547C
SYMBOL res -1600 3360 R0
SYMATTR InstName Rs5
SYMATTR Value 2.4
SYMBOL res -1568 3168 R90
WINDOW 0 0 56 VBottom 2
WINDOW 3 32 56 VTop 2
SYMATTR InstName R23
SYMATTR Value 1k
SYMBOL res -1696 3280 R180
WINDOW 0 36 76 Left 2
WINDOW 3 36 40 Left 2
SYMATTR InstName R24
SYMATTR Value 1880
SYMBOL npn -2480 3952 R0
SYMATTR InstName Q44
SYMATTR Value BC547C
SYMBOL npn -2640 3952 M0
SYMATTR InstName Q45
SYMATTR Value BC547C
SYMBOL res -2720 3808 R0
SYMATTR InstName R25
SYMATTR Value 1.8k
SYMBOL cap -1440 3600 R0
SYMATTR InstName C11
SYMATTR Value {C_L}
SYMBOL cap -2096 3040 R0
SYMATTR InstName C12
SYMATTR Value {C_c}
SYMBOL res -2096 3104 R0
SYMATTR InstName erre2
SYMATTR Value 100
TEXT 1064 504 Left 2 !.param R_L=10
TEXT 1064 528 Left 2 !.lib mje2955.lib
TEXT 864 504 Left 2 ;.dc VIN 3 24 .5
TEXT 1064 552 Left 2 !;step param R_L 50 3.3333 10
TEXT 864 536 Left 2 ;.op
TEXT 776 -192 Left 2 ;Mido regulacion de linea
TEXT 776 -152 Left 2 !.meas DC Vo1rl FIND V(Vo) AT=12
TEXT 776 -128 Left 2 !.meas DC Vo2rl FIND V(Vo) AT=24
TEXT 776 -104 Left 2 !.meas DC RegLin PARAM ((Vo2rl-Vo1rl)/12)
TEXT 776 -48 Left 2 ;Mido regulacion de carga
TEXT 776 -8 Left 2 !.meas OP Vo1rc FIND V(Vo) AT 100
TEXT 776 16 Left 2 !.meas OP Vo2rc FIND V(Vo) AT 5
TEXT 776 40 Left 2 !.meas OP Io1rc FIND I(RL) AT 100
TEXT 776 64 Left 2 !.meas OP Io2rc FIND I(RL) AT 5
TEXT 784 128 Left 2 ;Mido eficiencia
TEXT 784 168 Left 2 ;-100*((V(vo)*I(RL))/(V(VIN)*I(VIN)))
TEXT 832 664 Left 2 ;.tran 0 10 5 .5
TEXT 1080 600 Left 2 !.ac dec 50 1 1000meg
TEXT 1040 648 Left 2 !;step param C_L 15u 1u 2.2u
TEXT 840 808 Left 2 !.param C_L=15u
TEXT -760 2824 Left 2 !.param C_c=33n
