Version 4.1
SHEET 1 2012 680
WIRE 96 -208 -416 -208
WIRE 432 -208 96 -208
WIRE 1104 -208 432 -208
WIRE 96 -160 96 -208
WIRE 432 -160 432 -208
WIRE 272 -112 160 -112
WIRE 368 -112 272 -112
WIRE 1104 -96 1104 -208
WIRE 1040 -48 976 -48
WIRE 96 -32 96 -64
WIRE 272 -32 272 -112
WIRE 272 -32 96 -32
WIRE -416 0 -416 -208
WIRE 432 0 432 -64
WIRE 912 0 432 0
WIRE 1104 48 1104 0
WIRE 1104 48 976 48
WIRE 96 96 96 -32
WIRE 432 96 432 0
WIRE 32 144 -64 144
WIRE 640 144 496 144
WIRE 768 144 640 144
WIRE 1104 144 1104 48
WIRE 1104 144 848 144
WIRE -64 176 -64 144
WIRE 640 208 640 144
WIRE 1104 224 1104 144
WIRE 96 320 96 192
WIRE 256 320 96 320
WIRE 432 320 432 192
WIRE 432 320 256 320
WIRE -416 400 -416 80
WIRE 640 400 640 288
WIRE 1104 400 1104 304
FLAG -64 256 0
FLAG 256 400 0
FLAG 1104 400 0
FLAG -416 400 0
FLAG 640 400 0
FLAG 1104 144 Vo
SYMBOL npn 32 96 R0
SYMATTR InstName Q1
SYMATTR Value BC547C
SYMBOL npn 496 96 M0
SYMATTR InstName Q2
SYMATTR Value BC547C
SYMBOL npn 912 -48 R0
SYMATTR InstName Q3
SYMATTR Value BC547C
SYMBOL pnp 160 -64 R180
SYMATTR InstName Q4
SYMATTR Value BC557C
SYMBOL pnp 368 -64 M180
SYMATTR InstName Q5
SYMATTR Value BC557C
SYMBOL res 240 304 R0
SYMATTR InstName R1
SYMATTR Value 1.3k
SYMBOL voltage -64 160 R0
WINDOW 123 0 0 Left 0
WINDOW 39 0 0 Left 0
SYMATTR InstName V1
SYMATTR Value 2
SYMBOL voltage -416 -16 R0
WINDOW 123 0 0 Left 0
WINDOW 39 0 0 Left 0
SYMATTR InstName VIN
SYMATTR Value 10
SYMBOL pnp 1040 0 M180
SYMATTR InstName Q6
SYMATTR Value Qmje2955t
SYMBOL res 1088 208 R0
SYMATTR InstName RL
SYMATTR Value {R_L}
SYMBOL res 864 128 R90
WINDOW 0 0 56 VBottom 2
WINDOW 3 32 56 VTop 2
SYMATTR InstName R3
SYMATTR Value 3k
SYMBOL res 656 304 R180
WINDOW 0 36 76 Left 2
WINDOW 3 36 40 Left 2
SYMATTR InstName R4
SYMATTR Value 2k
TEXT 960 528 Left 2 !.param R_L 1000
TEXT 960 552 Left 2 !.lib mje2955.lib
TEXT 248 472 Left 2 !.dc VIN 3 24 .5
TEXT 960 576 Left 2 !.step param R_L 200 1 1
TEXT 248 504 Left 2 ;.op
TEXT 1496 -128 Left 2 ;Mido regulacion de linea
TEXT 1496 -88 Left 2 !.meas DC Vo1rl FIND V(Vo) AT=12
TEXT 1496 -64 Left 2 !.meas DC Vo2rl FIND V(Vo) AT=24
TEXT 1496 -40 Left 2 !.meas DC RegLin PARAM ((Vo2rl-Vo1rl)/12)
TEXT 1496 16 Left 2 ;Mido regulacion de carga
TEXT 1496 56 Left 2 !.meas OP Vo1rc FIND V(Vo) AT 100
TEXT 1496 80 Left 2 !.meas OP Vo2rc FIND V(Vo) AT 5
TEXT 1496 104 Left 2 !.meas OP Io1rc FIND I(RL) AT 100
TEXT 1496 128 Left 2 !.meas OP Io2rc FIND I(RL) AT 5
TEXT 1504 192 Left 2 ;Mido eficiencia
TEXT 1504 232 Left 2 ;-100*((V(vo)*I(RL))/(V(VIN)*I(VIN)))
