Version 4.1
SHEET 1 880 680
WIRE -96 -32 -320 -32
WIRE 288 -32 -96 -32
WIRE -320 0 -320 -32
WIRE -96 32 -96 -32
WIRE 288 64 288 -32
WIRE 224 112 -96 112
WIRE -96 176 -96 112
WIRE 32 224 -32 224
WIRE 96 224 32 224
WIRE 288 224 288 160
WIRE 288 224 176 224
WIRE 32 272 32 224
WIRE 288 272 288 224
WIRE -96 320 -96 272
WIRE 32 400 32 352
WIRE 288 400 288 352
FLAG -320 80 0
FLAG -96 400 0
FLAG 288 400 0
FLAG 32 400 0
SYMBOL npn 224 64 R0
SYMATTR InstName Q1
SYMATTR Value Qmje3055t
SYMBOL npn -32 176 M0
SYMATTR InstName Q2
SYMATTR Value BC547C
SYMBOL res 272 256 R0
SYMATTR InstName RL
SYMATTR Value {R_L}
SYMBOL res 192 208 R90
WINDOW 0 0 56 VBottom 2
WINDOW 3 32 56 VTop 2
SYMATTR InstName Rf2
SYMATTR Value 3k
SYMBOL res 48 368 R180
WINDOW 0 36 76 Left 2
WINDOW 3 36 40 Left 2
SYMATTR InstName Rf1
SYMATTR Value 2k
SYMBOL res -80 128 R180
WINDOW 0 36 76 Left 2
WINDOW 3 36 40 Left 2
SYMATTR InstName R1
SYMATTR Value 5000
SYMBOL voltage -320 -16 R0
WINDOW 123 0 0 Left 0
WINDOW 39 0 0 Left 0
SYMATTR InstName VIN
SYMATTR Value 10
SYMBOL voltage -96 304 R0
WINDOW 123 0 0 Left 0
WINDOW 39 0 0 Left 0
SYMATTR InstName V2
SYMATTR Value 1.3
TEXT 296 472 Left 2 !.param R_L 1000
TEXT 296 512 Left 2 !;step param R_L 1k 5 3
TEXT 296 552 Left 2 !.lib mje3055.lib
TEXT -352 576 Left 2 ;.op
TEXT -104 456 Left 2 !.dc VIN 3 24
